Circuit: * C:\Users\prds.fkh\Desktop\Elect2LabECGProject\sim\final.asc

WARNING: Node VO1 is floating.

WARNING: Less than two connections to node VO1.  This node is used by R10.
WARNING: Less than two connections to node N002.  This node is used by R16.
WARNING: Less than two connections to node N011.  This node is used by R17.
Early termination of direct N-R iteration.
Direct Newton iteration failed to find .op point.  (Use ".option noopiter" to skip.)
Starting Gmin stepping
Gmin = 10
vernier = 0.5
vernier = 0.25
vernier = 0.125
Gmin = 5.5165
vernier = 0.0625
vernier = 0.03125
vernier = 0.015625
vernier = 0.0078125
Gmin = 5.48432
vernier = 0.00390625
vernier = 0.00195313
vernier = 0.000976563
vernier = 0.000488281
Gmin = 0
Gmin stepping failed

Starting source stepping with srcstepmethod=0
Source Step = 3.0303%
Source Step = 33.3333%
Source Step = 63.6364%
Source Step = 93.9394%
Source stepping succeeded in finding the operating point.


Date: Mon Jan 01 15:00:15 2024
Total elapsed time: 0.296 seconds.

tnom = 27
temp = 27
method = trap
totiter = 1683
traniter = 0
tranpoints = 0
accept = 0
rejected = 0
matrix size = 110
fillins = 571
solver = Normal
Matrix Compiler1:    3335 opcodes
Matrix Compiler2: 19.31 KB object code size  4.4/3.3/[1.5]

